 ! Latest update date: 23 July 2010
 ! Updated to the latest version 5.0.0

  Version,9.3;

  Timestep,4;

  SurfaceConvectionAlgorithm:INSIDE,TARP;

  SurfaceConvectionAlgorithm:OUTSIDE,TARP;

  HeatBalanceAlgorithm,ConductionTransferFunction;

  ZoneCapacitanceMultiplier:ResearchSpecial,
    Multiplier,              !- Name
    ,                        !- Zone or ZoneList Name
    1,                       !- Temperature Capacity Multiplier
    1,                       !- Humidity Capacity Multiplier
    1,                       !- Carbon Dioxide Capacity Multiplier
    1.0;                     !- Generic Contaminant Capacity Multiplier

  GlobalGeometryRules,
    LowerLeftCorner,         !- Starting Vertex Position
    CounterClockWise,        !- Vertex Entry Direction
    World;                   !- Coordinate System

  ShadowCalculation,
    PolygonClipping,         !- Shading Calculation Method
    Periodic,                !- Shading Calculation Update Frequency Method
    20;                      !- Shading Calculation Update Frequency

 ! Monjur check if the zone sizing object is specified.

  SimulationControl,
    Yes,                     !- Do Zone Sizing Calculation
    Yes,                     !- Do System Sizing Calculation
    No,                      !- Do Plant Sizing Calculation
    No,                      !- Run Simulation for Sizing Periods
    Yes;                     !- Run Simulation for Weather File Run Periods

  Building,
    StudyOnArchitecturalPreferences,  !- Name
    0.0,                     !- North Axis {deg}
    City,                    !- Terrain
    0.04,                    !- Loads Convergence Tolerance Value {W}
    0.4,                     !- Temperature Convergence Tolerance Value {deltaC}
    FullInteriorAndExterior, !- Solar Distribution
    25,                      !- Maximum Number of Warmup Days
    6;                       !- Minimum Number of Warmup Days

  Site:Location,
    CHICAGO_IL_USA TMY2-94846,  !- Name
    41.78,                   !- Latitude {deg}
    -87.75,                  !- Longitude {deg}
    -6.0,                    !- Time Zone {hr}
    190.0;                   !- Elevation {m}

 ! CHICAGO_IL_USA Annual Heating 99% Design Conditions DB, MaxDB= -17.3°C

  SizingPeriod:DesignDay,
    CHICAGO_IL_USA Annual Heating 99% Design Conditions DB,  !- Name
    1,                       !- Month
    21,                      !- Day of Month
    WinterDesignDay,         !- Day Type
    -17.3,                   !- Maximum Dry-Bulb Temperature {C}
    0.0,                     !- Daily Dry-Bulb Temperature Range {deltaC}
    ,                        !- Dry-Bulb Temperature Range Modifier Type
    ,                        !- Dry-Bulb Temperature Range Modifier Day Schedule Name
    Wetbulb,                 !- Humidity Condition Type
    -17.3,                   !- Wetbulb or DewPoint at Maximum Dry-Bulb {C}
    ,                        !- Humidity Condition Day Schedule Name
    ,                        !- Humidity Ratio at Maximum Dry-Bulb {kgWater/kgDryAir}
    ,                        !- Enthalpy at Maximum Dry-Bulb {J/kg}
    ,                        !- Daily Wet-Bulb Temperature Range {deltaC}
    99063.,                  !- Barometric Pressure {Pa}
    4.9,                     !- Wind Speed {m/s}
    270,                     !- Wind Direction {deg}
    No,                      !- Rain Indicator
    No,                      !- Snow Indicator
    No,                      !- Daylight Saving Time Indicator
    ASHRAEClearSky,          !- Solar Model Indicator
    ,                        !- Beam Solar Day Schedule Name
    ,                        !- Diffuse Solar Day Schedule Name
    ,                        !- ASHRAE Clear Sky Optical Depth for Beam Irradiance (taub) {dimensionless}
    ,                        !- ASHRAE Clear Sky Optical Depth for Diffuse Irradiance (taud) {dimensionless}
    1.0;                     !- Sky Clearness

 ! CHICAGO_IL_USA Annual Cooling 1% Design Conditions, MaxDB=  31.5°C MCWB=  23.0°C

  SizingPeriod:DesignDay,
    CHICAGO_IL_USA Annual Cooling 1% Design Conditions DB/MCWB,  !- Name
    7,                       !- Month
    21,                      !- Day of Month
    SummerDesignDay,         !- Day Type
    31.5,                    !- Maximum Dry-Bulb Temperature {C}
    10.7,                    !- Daily Dry-Bulb Temperature Range {deltaC}
    ,                        !- Dry-Bulb Temperature Range Modifier Type
    ,                        !- Dry-Bulb Temperature Range Modifier Day Schedule Name
    Wetbulb,                 !- Humidity Condition Type
    23.0,                    !- Wetbulb or DewPoint at Maximum Dry-Bulb {C}
    ,                        !- Humidity Condition Day Schedule Name
    ,                        !- Humidity Ratio at Maximum Dry-Bulb {kgWater/kgDryAir}
    ,                        !- Enthalpy at Maximum Dry-Bulb {J/kg}
    ,                        !- Daily Wet-Bulb Temperature Range {deltaC}
    99063.,                  !- Barometric Pressure {Pa}
    5.3,                     !- Wind Speed {m/s}
    230,                     !- Wind Direction {deg}
    No,                      !- Rain Indicator
    No,                      !- Snow Indicator
    No,                      !- Daylight Saving Time Indicator
    ASHRAEClearSky,          !- Solar Model Indicator
    ,                        !- Beam Solar Day Schedule Name
    ,                        !- Diffuse Solar Day Schedule Name
    ,                        !- ASHRAE Clear Sky Optical Depth for Beam Irradiance (taub) {dimensionless}
    ,                        !- ASHRAE Clear Sky Optical Depth for Diffuse Irradiance (taud) {dimensionless}
    1.0;                     !- Sky Clearness

  Site:GroundTemperature:BuildingSurface,20.03,20.03,20.13,20.30,20.43,20.52,20.62,20.77,20.78,20.55,20.44,20.20;

  RunPeriod,
    AnnualSimulation,        !- Name
    1,                       !- Begin Month
    1,                       !- Begin Day of Month
    ,                        !- Begin Year
    12,                      !- End Month
    31,                      !- End Day of Month
    ,                        !- End Year
    ,                        !- Day of Week for Start Day
    Yes,                     !- Use Weather File Holidays and Special Days
    Yes,                     !- Use Weather File Daylight Saving Period
    No,                      !- Apply Weekend Holiday Rule
    Yes,                     !- Use Weather File Rain Indicators
    Yes,                     !- Use Weather File Snow Indicators
    ;                        !- Treat Weather as Actual

! ***************************************************************
! *********    GEOMETRY
! ***************************************************************
!\\\\\\\\\\\\\\\\\\\\\\\\\\\\\\\\\\\\\\\\\\\\\\\\\\\\\\\\\\\\\\\\
!\\\\\\\\\\\\\\\   ATRIUM
!\\\\\\\\\\\\\\\\\\\\\\\\\\\\\\\\\\\\\\\\\\\\\\\\\\\\\\\\\\\\\\\\

  ZONE,
    Atrium,                  !- Name
    0,                       !- Direction of Relative North {deg}
    0.0,                     !- X Origin {m}
    0.0,                     !- Y Origin {m}
    0.0,                     !- Z Origin {m}
    1,                       !- Type
    1,                       !- Multiplier
    autocalculate,           !- Ceiling Height {m}
    autocalculate;           !- Volume {m3}

  BuildingSurface:Detailed,
    Atrium_FLOOR,            !- Name
    FLOOR,                   !- Surface Type
    FLOOR-1,                 !- Construction Name
    Atrium,                  !- Zone Name
    Ground,                  !- Outside Boundary Condition
    ,                        !- Outside Boundary Condition Object
    NoSun,                   !- Sun Exposure
    NoWind,                  !- Wind Exposure
    autocalculate,           !- View Factor to Ground
    4,                       !- Number of Vertices
    20.0,15.0,0.0,  !- X,Y,Z ==> Vertex 1 {m}
    35.0,15.0,0.0,  !- X,Y,Z ==> Vertex 2 {m}
    35.0,0.0,0.0,  !- X,Y,Z ==> Vertex 3 {m}
    20.0,0.0,0.0;  !- X,Y,Z ==> Vertex 4 {m}

  BuildingSurface:Detailed,
    Atrium_ROOF,             !- Name
    ROOF,                    !- Surface Type
    ROOF-1,                  !- Construction Name
    Atrium,                  !- Zone Name
    Outdoors,                !- Outside Boundary Condition
    ,                        !- Outside Boundary Condition Object
    SunExposed,              !- Sun Exposure
    WindExposed,             !- Wind Exposure
    autocalculate,           !- View Factor to Ground
    4,                       !- Number of Vertices
    20.0,15.0,8.1,  !- X,Y,Z ==> Vertex 1 {m}
    20.0,0.0,8.1,  !- X,Y,Z ==> Vertex 2 {m}
    35.0,0.0,8.1,  !- X,Y,Z ==> Vertex 3 {m}
    35.0,15.0,8.1;  !- X,Y,Z ==> Vertex 4 {m}

  BuildingSurface:Detailed,
    Atrium_WALL-1,           !- Name
    WALL,                    !- Surface Type
    WALL-1,                  !- Construction Name
    Atrium,                  !- Zone Name
    Outdoors,                !- Outside Boundary Condition
    ,                        !- Outside Boundary Condition Object
    SunExposed,              !- Sun Exposure
    WindExposed,             !- Wind Exposure
    autocalculate,           !- View Factor to Ground
    4,                       !- Number of Vertices
    20.0,0.0,0.0,  !- X,Y,Z ==> Vertex 1 {m}
    35.0,0.0,0.0,  !- X,Y,Z ==> Vertex 2 {m}
    35.0,0.0,8.1,  !- X,Y,Z ==> Vertex 3 {m}
    20.0,0.0,8.1;  !- X,Y,Z ==> Vertex 4 {m}

  BuildingSurface:Detailed,
    Atrium_WALL-4-1,         !- Name
    WALL,                    !- Surface Type
    INT-WALL-1,              !- Construction Name
    Atrium,                  !- Zone Name
    Adiabatic,               !- Outside Boundary Condition
    ,                        !- Outside Boundary Condition Object
    NoSun,                   !- Sun Exposure
    NoWind,                  !- Wind Exposure
    autocalculate,           !- View Factor to Ground
    4,                       !- Number of Vertices
    20.0,15.0,0.0,  !- X,Y,Z ==> Vertex 1 {m}
    20.0,0.0,0.0,  !- X,Y,Z ==> Vertex 2 {m}
    20.0,0.0,2.7,  !- X,Y,Z ==> Vertex 3 {m}
    20.0,15.0,2.7;  !- X,Y,Z ==> Vertex 4 {m}

  BuildingSurface:Detailed,
    Atrium_WALL-4-2,         !- Name
    WALL,                    !- Surface Type
    INT-WALL-1,              !- Construction Name
    Atrium,                  !- Zone Name
    Adiabatic,               !- Outside Boundary Condition
    ,                        !- Outside Boundary Condition Object
    NoSun,                   !- Sun Exposure
    NoWind,                  !- Wind Exposure
    autocalculate,           !- View Factor to Ground
    4,                       !- Number of Vertices
    20.0,15.0,2.7,  !- X,Y,Z ==> Vertex 1 {m}
    20.0,0.0,2.7,  !- X,Y,Z ==> Vertex 2 {m}
    20.0,0.0,5.4,  !- X,Y,Z ==> Vertex 3 {m}
    20.0,15.0,5.4;  !- X,Y,Z ==> Vertex 4 {m}

  BuildingSurface:Detailed,
    Atrium_WALL-4-3,         !- Name
    WALL,                    !- Surface Type
    INT-WALL-1,              !- Construction Name
    Atrium,                  !- Zone Name
    Adiabatic,               !- Outside Boundary Condition
    ,                        !- Outside Boundary Condition Object
    NoSun,                   !- Sun Exposure
    NoWind,                  !- Wind Exposure
    autocalculate,           !- View Factor to Ground
    4,                       !- Number of Vertices
    20.0,15.0,5.4,  !- X,Y,Z ==> Vertex 1 {m}
    20.0,0.0,5.4,  !- X,Y,Z ==> Vertex 2 {m}
    20.0,0.0,8.1,  !- X,Y,Z ==> Vertex 3 {m}
    20.0,15.0,8.1;  !- X,Y,Z ==> Vertex 4 {m}

  BuildingSurface:Detailed,
    Atrium_WALL-2-1,         !- Name
    WALL,                    !- Surface Type
    INT-WALL-1,              !- Construction Name
    Atrium,                  !- Zone Name
    Adiabatic,               !- Outside Boundary Condition
    ,                        !- Outside Boundary Condition Object
    NoSun,                   !- Sun Exposure
    NoWind,                  !- Wind Exposure
    autocalculate,           !- View Factor to Ground
    4,                       !- Number of Vertices
    35.0,0.0,0.0,  !- X,Y,Z ==> Vertex 1 {m}
    35.0,15.0,0.0,  !- X,Y,Z ==> Vertex 2 {m}
    35.0,15.0,2.7,  !- X,Y,Z ==> Vertex 3 {m}
    35.0,0.0,2.7;  !- X,Y,Z ==> Vertex 4 {m}

  BuildingSurface:Detailed,
    Atrium_WALL-2-2,         !- Name
    WALL,                    !- Surface Type
    INT-WALL-1,              !- Construction Name
    Atrium,                  !- Zone Name
    Adiabatic,               !- Outside Boundary Condition
    ,                        !- Outside Boundary Condition Object
    NoSun,                   !- Sun Exposure
    NoWind,                  !- Wind Exposure
    autocalculate,           !- View Factor to Ground
    4,                       !- Number of Vertices
    35.0,0.0,2.7,  !- X,Y,Z ==> Vertex 1 {m}
    35.0,15.0,2.7,  !- X,Y,Z ==> Vertex 2 {m}
    35.0,15.0,5.4,  !- X,Y,Z ==> Vertex 3 {m}
    35.0,0.0,5.4;  !- X,Y,Z ==> Vertex 4 {m}

  BuildingSurface:Detailed,
    Atrium_WALL-2-3,         !- Name
    WALL,                    !- Surface Type
    INT-WALL-1,              !- Construction Name
    Atrium,                  !- Zone Name
    Adiabatic,               !- Outside Boundary Condition
    ,                        !- Outside Boundary Condition Object
    NoSun,                   !- Sun Exposure
    NoWind,                  !- Wind Exposure
    autocalculate,           !- View Factor to Ground
    4,                       !- Number of Vertices
    35.0,0.0,5.4,  !- X,Y,Z ==> Vertex 1 {m}
    35.0,15.0,5.4,  !- X,Y,Z ==> Vertex 2 {m}
    35.0,15.0,8.1,  !- X,Y,Z ==> Vertex 3 {m}
    35.0,0.0,8.1;  !- X,Y,Z ==> Vertex 4 {m}

  BuildingSurface:Detailed,
    Atrium_WALL-3-1,         !- Name
    WALL,                    !- Surface Type
    INT-WALL-1,              !- Construction Name
    Atrium,                  !- Zone Name
    Adiabatic,               !- Outside Boundary Condition
    ,                        !- Outside Boundary Condition Object
    NoSun,                   !- Sun Exposure
    NoWind,                  !- Wind Exposure
    autocalculate,           !- View Factor to Ground
    4,                       !- Number of Vertices
    35.0,15.0,0.0,  !- X,Y,Z ==> Vertex 1 {m}
    20.0,15.0,0.0,  !- X,Y,Z ==> Vertex 2 {m}
    20.0,15.0,2.7,  !- X,Y,Z ==> Vertex 3 {m}
    35.0,15.0,2.7;  !- X,Y,Z ==> Vertex 4 {m}

  BuildingSurface:Detailed,
    Atrium_WALL-3-2,         !- Name
    WALL,                    !- Surface Type
    INT-WALL-1,              !- Construction Name
    Atrium,                  !- Zone Name
    Adiabatic,               !- Outside Boundary Condition
    ,                        !- Outside Boundary Condition Object
    NoSun,                   !- Sun Exposure
    NoWind,                  !- Wind Exposure
    autocalculate,           !- View Factor to Ground
    4,                       !- Number of Vertices
    35.0,15.0,2.7,  !- X,Y,Z ==> Vertex 1 {m}
    20.0,15.0,2.7,  !- X,Y,Z ==> Vertex 2 {m}
    20.0,15.0,5.4,  !- X,Y,Z ==> Vertex 3 {m}
    35.0,15.0,5.4;  !- X,Y,Z ==> Vertex 4 {m}

  BuildingSurface:Detailed,
    Atrium_WALL-3-3,         !- Name
    WALL,                    !- Surface Type
    INT-WALL-1,              !- Construction Name
    Atrium,                  !- Zone Name
    Adiabatic,               !- Outside Boundary Condition
    ,                        !- Outside Boundary Condition Object
    NoSun,                   !- Sun Exposure
    NoWind,                  !- Wind Exposure
    autocalculate,           !- View Factor to Ground
    4,                       !- Number of Vertices
    35.0,15.0,5.4,  !- X,Y,Z ==> Vertex 1 {m}
    20.0,15.0,5.4,  !- X,Y,Z ==> Vertex 2 {m}
    20.0,15.0,8.1,  !- X,Y,Z ==> Vertex 3 {m}
    35.0,15.0,8.1;  !- X,Y,Z ==> Vertex 4 {m}

!\/\/\/\/\/\/\/\/\/\/\/\/\/\/\/\/\/\/\/\/\/\/\/\/\/\/\/\/\/\/\/\/\/\
!******************************************************************
!****************  WINDOW MATRIX STARTS HERE **********************
!******************************************************************
!\/\/\/\/\/\/\/\/\/\/\/\/\/\/\/\/\/\/\/\/\/\/\/\/\/\/\/\/\/\/\/\/\/\
BOP_WindowWall[120]enestrationSurface:Detailed,Win-001,WINDOW,WinConst-1,Atrium_WALL-1,,0.5,,1,4,20.538,0.0,0.1,21.338,0.0,0.1,21.338,0.0,0.9,20.538,0.0,0.9;



BOP_Overhang[120]hading:Overhang,Win-001-Shading,Win-001,0.00,90,0.0,0.0,0.3;


BOP_WindowWall[119]enestrationSurface:Detailed,Win-002,WINDOW,WinConst-1,Atrium_WALL-1,,0.5,,1,4,21.475,0.0,0.1,22.275,0.0,0.1,22.275,0.0,0.9,21.475,0.0,0.9;



BOP_Overhang[119]hading:Overhang,Win-002-Shading,Win-002,0.00,90,0.0,0.0,0.3;


BOP_WindowWall[118]enestrationSurface:Detailed,Win-003,WINDOW,WinConst-1,Atrium_WALL-1,,0.5,,1,4,22.413,0.0,0.1,23.213,0.0,0.1,23.213,0.0,0.9,22.413,0.0,0.9;



BOP_Overhang[118]hading:Overhang,Win-003-Shading,Win-003,0.00,90,0.0,0.0,0.3;


BOP_WindowWall[117]enestrationSurface:Detailed,Win-004,WINDOW,WinConst-1,Atrium_WALL-1,,0.5,,1,4,23.35,0.0,0.1,24.15,0.0,0.1,24.15,0.0,0.9,23.35,0.0,0.9;



BOP_Overhang[117]hading:Overhang,Win-004-Shading,Win-004,0.00,90,0.0,0.0,0.3;


BOP_WindowWall[116]enestrationSurface:Detailed,Win-005,WINDOW,WinConst-1,Atrium_WALL-1,,0.5,,1,4,24.288,0.0,0.1,25.088,0.0,0.1,25.088,0.0,0.9,24.288,0.0,0.9;



BOP_Overhang[116]hading:Overhang,Win-005-Shading,Win-005,0.00,90,0.0,0.0,0.3;


BOP_WindowWall[115]enestrationSurface:Detailed,Win-006,WINDOW,WinConst-1,Atrium_WALL-1,,0.5,,1,4,25.225,0.0,0.1,26.025,0.0,0.1,26.025,0.0,0.9,25.225,0.0,0.9;



BOP_Overhang[115]hading:Overhang,Win-006-Shading,Win-006,0.00,90,0.0,0.0,0.3;


BOP_WindowWall[114]enestrationSurface:Detailed,Win-007,WINDOW,WinConst-1,Atrium_WALL-1,,0.5,,1,4,26.163,0.0,0.1,26.963,0.0,0.1,26.963,0.0,0.9,26.163,0.0,0.9;



BOP_Overhang[114]hading:Overhang,Win-007-Shading,Win-007,0.00,90,0.0,0.0,0.3;


BOP_WindowWall[113]enestrationSurface:Detailed,Win-008,WINDOW,WinConst-1,Atrium_WALL-1,,0.5,,1,4,27.1,0.0,0.1,27.9,0.0,0.1,27.9,0.0,0.9,27.1,0.0,0.9;



BOP_Overhang[113]hading:Overhang,Win-008-Shading,Win-008,0.00,90,0.0,0.0,0.3;


BOP_WindowWall[112]enestrationSurface:Detailed,Win-009,WINDOW,WinConst-1,Atrium_WALL-1,,0.5,,1,4,28.038,0.0,0.1,28.838,0.0,0.1,28.838,0.0,0.9,28.038,0.0,0.9;



BOP_Overhang[112]hading:Overhang,Win-009-Shading,Win-009,0.00,90,0.0,0.0,0.3;


BOP_WindowWall[111]enestrationSurface:Detailed,Win-010,WINDOW,WinConst-1,Atrium_WALL-1,,0.5,,1,4,28.975,0.0,0.1,29.775,0.0,0.1,29.775,0.0,0.9,28.975,0.0,0.9;



BOP_Overhang[111]hading:Overhang,Win-010-Shading,Win-010,0.00,90,0.0,0.0,0.3;


BOP_WindowWall[110]enestrationSurface:Detailed,Win-011,WINDOW,WinConst-1,Atrium_WALL-1,,0.5,,1,4,29.913,0.0,0.1,30.713,0.0,0.1,30.713,0.0,0.9,29.913,0.0,0.9;



BOP_Overhang[110]hading:Overhang,Win-011-Shading,Win-011,0.00,90,0.0,0.0,0.3;


BOP_WindowWall[109]enestrationSurface:Detailed,Win-012,WINDOW,WinConst-1,Atrium_WALL-1,,0.5,,1,4,30.85,0.0,0.1,31.65,0.0,0.1,31.65,0.0,0.9,30.85,0.0,0.9;



BOP_Overhang[109]hading:Overhang,Win-012-Shading,Win-012,0.00,90,0.0,0.0,0.3;


BOP_WindowWall[108]enestrationSurface:Detailed,Win-013,WINDOW,WinConst-1,Atrium_WALL-1,,0.5,,1,4,31.787,0.0,0.1,32.588,0.0,0.1,32.588,0.0,0.9,31.787,0.0,0.9;



BOP_Overhang[108]hading:Overhang,Win-013-Shading,Win-013,0.00,90,0.0,0.0,0.3;


BOP_WindowWall[107]enestrationSurface:Detailed,Win-014,WINDOW,WinConst-1,Atrium_WALL-1,,0.5,,1,4,32.725,0.0,0.1,33.525,0.0,0.1,33.525,0.0,0.9,32.725,0.0,0.9;



BOP_Overhang[107]hading:Overhang,Win-014-Shading,Win-014,0.00,90,0.0,0.0,0.3;


BOP_WindowWall[106]enestrationSurface:Detailed,Win-015,WINDOW,WinConst-1,Atrium_WALL-1,,0.5,,1,4,33.662,0.0,0.1,34.463,0.0,0.1,34.463,0.0,0.9,33.662,0.0,0.9;



BOP_Overhang[106]hading:Overhang,Win-015-Shading,Win-015,0.00,90,0.0,0.0,0.3;


BOP_WindowWall[105]enestrationSurface:Detailed,Win-016,WINDOW,WinConst-1,Atrium_WALL-1,,0.5,,1,4,20.538,0.0,1.1,21.338,0.0,1.1,21.338,0.0,1.9,20.538,0.0,1.9;



BOP_Overhang[105]hading:Overhang,Win-016-Shading,Win-016,0.00,90,0.0,0.0,0.3;


BOP_WindowWall[104]enestrationSurface:Detailed,Win-017,WINDOW,WinConst-1,Atrium_WALL-1,,0.5,,1,4,21.475,0.0,1.1,22.275,0.0,1.1,22.275,0.0,1.9,21.475,0.0,1.9;



BOP_Overhang[104]hading:Overhang,Win-017-Shading,Win-017,0.00,90,0.0,0.0,0.3;


BOP_WindowWall[103]enestrationSurface:Detailed,Win-018,WINDOW,WinConst-1,Atrium_WALL-1,,0.5,,1,4,22.413,0.0,1.1,23.213,0.0,1.1,23.213,0.0,1.9,22.413,0.0,1.9;



BOP_Overhang[103]hading:Overhang,Win-018-Shading,Win-018,0.00,90,0.0,0.0,0.3;


BOP_WindowWall[102]enestrationSurface:Detailed,Win-019,WINDOW,WinConst-1,Atrium_WALL-1,,0.5,,1,4,23.35,0.0,1.1,24.15,0.0,1.1,24.15,0.0,1.9,23.35,0.0,1.9;



BOP_Overhang[102]hading:Overhang,Win-019-Shading,Win-019,0.00,90,0.0,0.0,0.3;


BOP_WindowWall[101]enestrationSurface:Detailed,Win-020,WINDOW,WinConst-1,Atrium_WALL-1,,0.5,,1,4,24.288,0.0,1.1,25.088,0.0,1.1,25.088,0.0,1.9,24.288,0.0,1.9;



BOP_Overhang[101]hading:Overhang,Win-020-Shading,Win-020,0.00,90,0.0,0.0,0.3;


BOP_WindowWall[100]enestrationSurface:Detailed,Win-021,WINDOW,WinConst-1,Atrium_WALL-1,,0.5,,1,4,25.225,0.0,1.1,26.025,0.0,1.1,26.025,0.0,1.9,25.225,0.0,1.9;



BOP_Overhang[100]hading:Overhang,Win-021-Shading,Win-021,0.00,90,0.0,0.0,0.3;


BOP_WindowWall[99]enestrationSurface:Detailed,Win-022,WINDOW,WinConst-1,Atrium_WALL-1,,0.5,,1,4,26.163,0.0,1.1,26.963,0.0,1.1,26.963,0.0,1.9,26.163,0.0,1.9;



BOP_Overhang[99]hading:Overhang,Win-022-Shading,Win-022,0.00,90,0.0,0.0,0.3;


BOP_WindowWall[98]enestrationSurface:Detailed,Win-023,WINDOW,WinConst-1,Atrium_WALL-1,,0.5,,1,4,27.1,0.0,1.1,27.9,0.0,1.1,27.9,0.0,1.9,27.1,0.0,1.9;



BOP_Overhang[98]hading:Overhang,Win-023-Shading,Win-023,0.00,90,0.0,0.0,0.3;


BOP_WindowWall[97]enestrationSurface:Detailed,Win-024,WINDOW,WinConst-1,Atrium_WALL-1,,0.5,,1,4,28.038,0.0,1.1,28.838,0.0,1.1,28.838,0.0,1.9,28.038,0.0,1.9;



BOP_Overhang[97]hading:Overhang,Win-024-Shading,Win-024,0.00,90,0.0,0.0,0.3;


BOP_WindowWall[96]enestrationSurface:Detailed,Win-025,WINDOW,WinConst-1,Atrium_WALL-1,,0.5,,1,4,28.975,0.0,1.1,29.775,0.0,1.1,29.775,0.0,1.9,28.975,0.0,1.9;



BOP_Overhang[96]hading:Overhang,Win-025-Shading,Win-025,0.00,90,0.0,0.0,0.3;


BOP_WindowWall[95]enestrationSurface:Detailed,Win-026,WINDOW,WinConst-1,Atrium_WALL-1,,0.5,,1,4,29.913,0.0,1.1,30.713,0.0,1.1,30.713,0.0,1.9,29.913,0.0,1.9;



BOP_Overhang[95]hading:Overhang,Win-026-Shading,Win-026,0.00,90,0.0,0.0,0.3;


BOP_WindowWall[94]enestrationSurface:Detailed,Win-027,WINDOW,WinConst-1,Atrium_WALL-1,,0.5,,1,4,30.85,0.0,1.1,31.65,0.0,1.1,31.65,0.0,1.9,30.85,0.0,1.9;



BOP_Overhang[94]hading:Overhang,Win-027-Shading,Win-027,0.00,90,0.0,0.0,0.3;


BOP_WindowWall[93]enestrationSurface:Detailed,Win-028,WINDOW,WinConst-1,Atrium_WALL-1,,0.5,,1,4,31.787,0.0,1.1,32.588,0.0,1.1,32.588,0.0,1.9,31.787,0.0,1.9;



BOP_Overhang[93]hading:Overhang,Win-028-Shading,Win-028,0.00,90,0.0,0.0,0.3;


BOP_WindowWall[92]enestrationSurface:Detailed,Win-029,WINDOW,WinConst-1,Atrium_WALL-1,,0.5,,1,4,32.725,0.0,1.1,33.525,0.0,1.1,33.525,0.0,1.9,32.725,0.0,1.9;



BOP_Overhang[92]hading:Overhang,Win-029-Shading,Win-029,0.00,90,0.0,0.0,0.3;


BOP_WindowWall[91]enestrationSurface:Detailed,Win-030,WINDOW,WinConst-1,Atrium_WALL-1,,0.5,,1,4,33.662,0.0,1.1,34.463,0.0,1.1,34.463,0.0,1.9,33.662,0.0,1.9;



BOP_Overhang[91]hading:Overhang,Win-030-Shading,Win-030,0.00,90,0.0,0.0,0.3;


BOP_WindowWall[90]enestrationSurface:Detailed,Win-031,WINDOW,WinConst-1,Atrium_WALL-1,,0.5,,1,4,20.538,0.0,2.1,21.338,0.0,2.1,21.338,0.0,2.9,20.538,0.0,2.9;



BOP_Overhang[90]hading:Overhang,Win-031-Shading,Win-031,0.00,90,0.0,0.0,0.3;


BOP_WindowWall[89]enestrationSurface:Detailed,Win-032,WINDOW,WinConst-1,Atrium_WALL-1,,0.5,,1,4,21.475,0.0,2.1,22.275,0.0,2.1,22.275,0.0,2.9,21.475,0.0,2.9;



BOP_Overhang[89]hading:Overhang,Win-032-Shading,Win-032,0.00,90,0.0,0.0,0.3;


BOP_WindowWall[88]enestrationSurface:Detailed,Win-033,WINDOW,WinConst-1,Atrium_WALL-1,,0.5,,1,4,22.413,0.0,2.1,23.213,0.0,2.1,23.213,0.0,2.9,22.413,0.0,2.9;



BOP_Overhang[88]hading:Overhang,Win-033-Shading,Win-033,0.00,90,0.0,0.0,0.3;


BOP_WindowWall[87]enestrationSurface:Detailed,Win-034,WINDOW,WinConst-1,Atrium_WALL-1,,0.5,,1,4,23.35,0.0,2.1,24.15,0.0,2.1,24.15,0.0,2.9,23.35,0.0,2.9;



BOP_Overhang[87]hading:Overhang,Win-034-Shading,Win-034,0.00,90,0.0,0.0,0.3;


BOP_WindowWall[86]enestrationSurface:Detailed,Win-035,WINDOW,WinConst-1,Atrium_WALL-1,,0.5,,1,4,24.288,0.0,2.1,25.088,0.0,2.1,25.088,0.0,2.9,24.288,0.0,2.9;



BOP_Overhang[86]hading:Overhang,Win-035-Shading,Win-035,0.00,90,0.0,0.0,0.3;


BOP_WindowWall[85]enestrationSurface:Detailed,Win-036,WINDOW,WinConst-1,Atrium_WALL-1,,0.5,,1,4,25.225,0.0,2.1,26.025,0.0,2.1,26.025,0.0,2.9,25.225,0.0,2.9;



BOP_Overhang[85]hading:Overhang,Win-036-Shading,Win-036,0.00,90,0.0,0.0,0.3;


BOP_WindowWall[84]enestrationSurface:Detailed,Win-037,WINDOW,WinConst-1,Atrium_WALL-1,,0.5,,1,4,26.163,0.0,2.1,26.963,0.0,2.1,26.963,0.0,2.9,26.163,0.0,2.9;



BOP_Overhang[84]hading:Overhang,Win-037-Shading,Win-037,0.00,90,0.0,0.0,0.3;


BOP_WindowWall[83]enestrationSurface:Detailed,Win-038,WINDOW,WinConst-1,Atrium_WALL-1,,0.5,,1,4,27.1,0.0,2.1,27.9,0.0,2.1,27.9,0.0,2.9,27.1,0.0,2.9;



BOP_Overhang[83]hading:Overhang,Win-038-Shading,Win-038,0.00,90,0.0,0.0,0.3;


BOP_WindowWall[82]enestrationSurface:Detailed,Win-039,WINDOW,WinConst-1,Atrium_WALL-1,,0.5,,1,4,28.038,0.0,2.1,28.838,0.0,2.1,28.838,0.0,2.9,28.038,0.0,2.9;



BOP_Overhang[82]hading:Overhang,Win-039-Shading,Win-039,0.00,90,0.0,0.0,0.3;


BOP_WindowWall[81]enestrationSurface:Detailed,Win-040,WINDOW,WinConst-1,Atrium_WALL-1,,0.5,,1,4,28.975,0.0,2.1,29.775,0.0,2.1,29.775,0.0,2.9,28.975,0.0,2.9;



BOP_Overhang[81]hading:Overhang,Win-040-Shading,Win-040,0.00,90,0.0,0.0,0.3;


BOP_WindowWall[80]enestrationSurface:Detailed,Win-041,WINDOW,WinConst-1,Atrium_WALL-1,,0.5,,1,4,29.913,0.0,2.1,30.713,0.0,2.1,30.713,0.0,2.9,29.913,0.0,2.9;



BOP_Overhang[80]hading:Overhang,Win-041-Shading,Win-041,0.00,90,0.0,0.0,0.3;


BOP_WindowWall[79]enestrationSurface:Detailed,Win-042,WINDOW,WinConst-1,Atrium_WALL-1,,0.5,,1,4,30.85,0.0,2.1,31.65,0.0,2.1,31.65,0.0,2.9,30.85,0.0,2.9;



BOP_Overhang[79]hading:Overhang,Win-042-Shading,Win-042,0.00,90,0.0,0.0,0.3;


BOP_WindowWall[78]enestrationSurface:Detailed,Win-043,WINDOW,WinConst-1,Atrium_WALL-1,,0.5,,1,4,31.787,0.0,2.1,32.588,0.0,2.1,32.588,0.0,2.9,31.787,0.0,2.9;



BOP_Overhang[78]hading:Overhang,Win-043-Shading,Win-043,0.00,90,0.0,0.0,0.3;


BOP_WindowWall[77]enestrationSurface:Detailed,Win-044,WINDOW,WinConst-1,Atrium_WALL-1,,0.5,,1,4,32.725,0.0,2.1,33.525,0.0,2.1,33.525,0.0,2.9,32.725,0.0,2.9;



BOP_Overhang[77]hading:Overhang,Win-044-Shading,Win-044,0.00,90,0.0,0.0,0.3;


BOP_WindowWall[76]enestrationSurface:Detailed,Win-045,WINDOW,WinConst-1,Atrium_WALL-1,,0.5,,1,4,33.662,0.0,2.1,34.463,0.0,2.1,34.463,0.0,2.9,33.662,0.0,2.9;



BOP_Overhang[76]hading:Overhang,Win-045-Shading,Win-045,0.00,90,0.0,0.0,0.3;


BOP_WindowWall[75]enestrationSurface:Detailed,Win-046,WINDOW,WinConst-1,Atrium_WALL-1,,0.5,,1,4,20.538,0.0,3.1,21.338,0.0,3.1,21.338,0.0,3.9,20.538,0.0,3.9;



BOP_Overhang[75]hading:Overhang,Win-046-Shading,Win-046,0.00,90,0.0,0.0,0.3;


BOP_WindowWall[74]enestrationSurface:Detailed,Win-047,WINDOW,WinConst-1,Atrium_WALL-1,,0.5,,1,4,21.475,0.0,3.1,22.275,0.0,3.1,22.275,0.0,3.9,21.475,0.0,3.9;



BOP_Overhang[74]hading:Overhang,Win-047-Shading,Win-047,0.00,90,0.0,0.0,0.3;


BOP_WindowWall[73]enestrationSurface:Detailed,Win-048,WINDOW,WinConst-1,Atrium_WALL-1,,0.5,,1,4,22.413,0.0,3.1,23.213,0.0,3.1,23.213,0.0,3.9,22.413,0.0,3.9;



BOP_Overhang[73]hading:Overhang,Win-048-Shading,Win-048,0.00,90,0.0,0.0,0.3;


BOP_WindowWall[72]enestrationSurface:Detailed,Win-049,WINDOW,WinConst-1,Atrium_WALL-1,,0.5,,1,4,23.35,0.0,3.1,24.15,0.0,3.1,24.15,0.0,3.9,23.35,0.0,3.9;



BOP_Overhang[72]hading:Overhang,Win-049-Shading,Win-049,0.00,90,0.0,0.0,0.3;


BOP_WindowWall[71]enestrationSurface:Detailed,Win-050,WINDOW,WinConst-1,Atrium_WALL-1,,0.5,,1,4,24.288,0.0,3.1,25.088,0.0,3.1,25.088,0.0,3.9,24.288,0.0,3.9;



BOP_Overhang[71]hading:Overhang,Win-050-Shading,Win-050,0.00,90,0.0,0.0,0.3;


BOP_WindowWall[70]enestrationSurface:Detailed,Win-051,WINDOW,WinConst-1,Atrium_WALL-1,,0.5,,1,4,25.225,0.0,3.1,26.025,0.0,3.1,26.025,0.0,3.9,25.225,0.0,3.9;



BOP_Overhang[70]hading:Overhang,Win-051-Shading,Win-051,0.00,90,0.0,0.0,0.3;


BOP_WindowWall[69]enestrationSurface:Detailed,Win-052,WINDOW,WinConst-1,Atrium_WALL-1,,0.5,,1,4,26.163,0.0,3.1,26.963,0.0,3.1,26.963,0.0,3.9,26.163,0.0,3.9;



BOP_Overhang[69]hading:Overhang,Win-052-Shading,Win-052,0.00,90,0.0,0.0,0.3;


BOP_WindowWall[68]enestrationSurface:Detailed,Win-053,WINDOW,WinConst-1,Atrium_WALL-1,,0.5,,1,4,27.1,0.0,3.1,27.9,0.0,3.1,27.9,0.0,3.9,27.1,0.0,3.9;



BOP_Overhang[68]hading:Overhang,Win-053-Shading,Win-053,0.00,90,0.0,0.0,0.3;


BOP_WindowWall[67]enestrationSurface:Detailed,Win-054,WINDOW,WinConst-1,Atrium_WALL-1,,0.5,,1,4,28.038,0.0,3.1,28.838,0.0,3.1,28.838,0.0,3.9,28.038,0.0,3.9;



BOP_Overhang[67]hading:Overhang,Win-054-Shading,Win-054,0.00,90,0.0,0.0,0.3;


BOP_WindowWall[66]enestrationSurface:Detailed,Win-055,WINDOW,WinConst-1,Atrium_WALL-1,,0.5,,1,4,28.975,0.0,3.1,29.775,0.0,3.1,29.775,0.0,3.9,28.975,0.0,3.9;


